# generated using pymatgen
data_Ba2CoS3
_symmetry_space_group_name_H-M   'P 1'
_cell_length_a   4.21270415
_cell_length_b   12.16381050
_cell_length_c   12.43083452
_cell_angle_alpha   90.00000000
_cell_angle_beta   90.00000000
_cell_angle_gamma   90.00000000
_symmetry_Int_Tables_number   1
_chemical_formula_structural   Ba2CoS3
_chemical_formula_sum   'Ba8 Co4 S12'
_cell_volume   636.987472637
_cell_formula_units_Z   4
loop_
 _symmetry_equiv_pos_site_id
 _symmetry_equiv_pos_as_xyz
  1  'x, y, z'
loop_
 _atom_site_type_symbol
 _atom_site_label
 _atom_site_symmetry_multiplicity
 _atom_site_fract_x
 _atom_site_fract_y
 _atom_site_fract_z
 _atom_site_occupancy
  S  S1  1  0.250000  0.771561  0.719989  1
  S  S2  1  0.750000  0.228439  0.280011  1
  S  S3  1  0.250000  0.271561  0.780011  1
  S  S4  1  0.750000  0.728439  0.219989  1
  S  S5  1  0.250000  0.435310  0.140433  1
  S  S6  1  0.750000  0.564690  0.859567  1
  S  S7  1  0.250000  0.935310  0.359567  1
  S  S8  1  0.750000  0.360646  0.553950  1
  S  S9  1  0.250000  0.139354  0.053950  1
  S  S10  1  0.750000  0.860646  0.946050  1
  S  S11  1  0.250000  0.639354  0.446050  1
  S  S12  1  0.750000  0.064690  0.640433  1
  Co  Co13  1  0.750000  0.244816  0.697455  1
  Co  Co14  1  0.750000  0.744816  0.802545  1
  Co  Co15  1  0.250000  0.755184  0.302545  1
  Co  Co16  1  0.250000  0.255184  0.197455  1
  Ba  Ba17  1  0.250000  0.011204  0.825916  1
  Ba  Ba18  1  0.750000  0.488796  0.325916  1
  Ba  Ba19  1  0.250000  0.511204  0.674084  1
  Ba  Ba20  1  0.750000  0.988796  0.174084  1
  Ba  Ba21  1  0.250000  0.172884  0.477892  1
  Ba  Ba22  1  0.750000  0.827116  0.522108  1
  Ba  Ba23  1  0.250000  0.672884  0.022108  1
  Ba  Ba24  1  0.750000  0.327116  0.977892  1
