# generated using pymatgen
data_Ba3FeS5
_symmetry_space_group_name_H-M   'P 1'
_cell_length_a   8.54632439
_cell_length_b   9.61038722
_cell_length_c   12.06378583
_cell_angle_alpha   89.99984598
_cell_angle_beta   90.00284087
_cell_angle_gamma   89.99996321
_symmetry_Int_Tables_number   1
_chemical_formula_structural   Ba3FeS5
_chemical_formula_sum   'Ba12 Fe4 S20'
_cell_volume   990.840792357
_cell_formula_units_Z   4
loop_
 _symmetry_equiv_pos_site_id
 _symmetry_equiv_pos_as_xyz
  1  'x, y, z'
loop_
 _atom_site_type_symbol
 _atom_site_label
 _atom_site_symmetry_multiplicity
 _atom_site_fract_x
 _atom_site_fract_y
 _atom_site_fract_z
 _atom_site_occupancy
  Ba  Ba1  1  0.411496  0.481005  0.677868  1
  Ba  Ba2  1  0.588482  0.981034  0.322158  1
  Ba  Ba3  1  0.088562  0.019034  0.177886  1
  Ba  Ba4  1  0.095132  0.750001  0.483505  1
  Ba  Ba5  1  0.904895  0.250000  0.516460  1
  Ba  Ba6  1  0.911477  0.518964  0.822115  1
  Ba  Ba7  1  0.588483  0.518973  0.322162  1
  Ba  Ba8  1  0.404779  0.749998  0.983483  1
  Ba  Ba9  1  0.411496  0.018988  0.677867  1
  Ba  Ba10  1  0.911478  0.981037  0.822115  1
  Ba  Ba11  1  0.088564  0.480969  0.177889  1
  Ba  Ba12  1  0.595154  0.250001  0.016487  1
  Fe  Fe13  1  0.812428  0.749998  0.100031  1
  Fe  Fe14  1  0.687496  0.750002  0.600054  1
  Fe  Fe15  1  0.187588  0.249998  0.899963  1
  Fe  Fe16  1  0.312492  0.250000  0.399983  1
  S  S17  1  0.694033  0.944852  0.060885  1
  S  S18  1  0.170717  0.750001  0.737354  1
  S  S19  1  0.829288  0.250001  0.262670  1
  S  S20  1  0.973605  0.250002  0.996601  1
  S  S21  1  0.133608  0.249998  0.721705  1
  S  S22  1  0.694032  0.555150  0.060886  1
  S  S23  1  0.305914  0.444807  0.939105  1
  S  S24  1  0.194149  0.444828  0.439099  1
  S  S25  1  0.805886  0.555211  0.560892  1
  S  S26  1  0.526503  0.250000  0.496640  1
  S  S27  1  0.866355  0.750001  0.278264  1
  S  S28  1  0.473600  0.750000  0.503405  1
  S  S29  1  0.670713  0.249995  0.762675  1
  S  S30  1  0.805881  0.944787  0.560892  1
  S  S31  1  0.305914  0.055192  0.939107  1
  S  S32  1  0.026384  0.749999  0.003365  1
  S  S33  1  0.329262  0.750001  0.237328  1
  S  S34  1  0.194149  0.055174  0.439098  1
  S  S35  1  0.633600  0.749998  0.778277  1
  S  S36  1  0.366404  0.250001  0.221727  1
