# generated using pymatgen
data_Ba6Fe8S15
_symmetry_space_group_name_H-M   'P 1'
_cell_length_a   9.54266055
_cell_length_b   9.54266055
_cell_length_c   9.54266055
_cell_angle_alpha   106.39805328
_cell_angle_beta   106.39805331
_cell_angle_gamma   115.80962108
_symmetry_Int_Tables_number   1
_chemical_formula_structural   Ba6Fe8S15
_chemical_formula_sum   'Ba6 Fe8 S15'
_cell_volume   662.732488365
_cell_formula_units_Z   1
loop_
 _symmetry_equiv_pos_site_id
 _symmetry_equiv_pos_as_xyz
  1  'x, y, z'
loop_
 _atom_site_type_symbol
 _atom_site_label
 _atom_site_symmetry_multiplicity
 _atom_site_fract_x
 _atom_site_fract_y
 _atom_site_fract_z
 _atom_site_occupancy
  S  S1  1  0.000000  0.000000  0.000000  1
  S  S2  1  0.500000  0.000000  0.500000  1
  S  S3  1  0.000000  0.500000  0.500000  1
  S  S4  1  0.597460  0.705191  0.302650  1
  S  S5  1  0.705191  0.402540  0.107731  1
  S  S6  1  0.294809  0.597460  0.892269  1
  S  S7  1  0.402540  0.294809  0.697350  1
  S  S8  1  0.047042  0.848570  0.354731  1
  S  S9  1  0.848570  0.493839  0.801528  1
  S  S10  1  0.692312  0.047042  0.198472  1
  S  S11  1  0.493839  0.692312  0.645269  1
  S  S12  1  0.952958  0.151430  0.645269  1
  S  S13  1  0.151430  0.506161  0.198472  1
  S  S14  1  0.307688  0.952958  0.801528  1
  S  S15  1  0.506161  0.307688  0.354731  1
  Fe  Fe16  1  0.308245  0.013222  0.588125  1
  Fe  Fe17  1  0.013222  0.425097  0.704977  1
  Fe  Fe18  1  0.720119  0.308245  0.295023  1
  Fe  Fe19  1  0.425097  0.720119  0.411875  1
  Fe  Fe20  1  0.691755  0.986778  0.411875  1
  Fe  Fe21  1  0.986778  0.574903  0.295023  1
  Fe  Fe22  1  0.279881  0.691755  0.704977  1
  Fe  Fe23  1  0.574903  0.279881  0.588125  1
  Ba  Ba24  1  0.867569  0.748893  0.616462  1
  Ba  Ba25  1  0.748893  0.132431  0.881325  1
  Ba  Ba26  1  0.251107  0.867569  0.118675  1
  Ba  Ba27  1  0.132431  0.251107  0.383538  1
  Ba  Ba28  1  0.697247  0.697247  0.000000  1
  Ba  Ba29  1  0.302753  0.302753  0.000000  1
