# generated using pymatgen
data_K2CoS2
_symmetry_space_group_name_H-M   'P 1'
_cell_length_a   5.94958649
_cell_length_b   6.80595610
_cell_length_c   7.79606144
_cell_angle_alpha   115.87512293
_cell_angle_beta   112.44395715
_cell_angle_gamma   89.99113318
_symmetry_Int_Tables_number   1
_chemical_formula_structural   K2CoS2
_chemical_formula_sum   'K4 Co2 S4'
_cell_volume   257.207292534
_cell_formula_units_Z   2
loop_
 _symmetry_equiv_pos_site_id
 _symmetry_equiv_pos_as_xyz
  1  'x, y, z'
loop_
 _atom_site_type_symbol
 _atom_site_label
 _atom_site_symmetry_multiplicity
 _atom_site_fract_x
 _atom_site_fract_y
 _atom_site_fract_z
 _atom_site_occupancy
  K  K1  1  0.853255  0.521979  0.706543  1
  K  K2  1  0.646897  0.815253  0.293608  1
  K  K3  1  0.146745  0.478021  0.293457  1
  K  K4  1  0.353103  0.184748  0.706392  1
  Co  Co5  1  0.250082  0.999985  0.000009  1
  Co  Co6  1  0.749918  0.000015  0.999991  1
  S  S7  1  0.401102  0.719527  0.802219  1
  S  S8  1  0.901149  0.082691  0.802297  1
  S  S9  1  0.098851  0.917309  0.197703  1
  S  S10  1  0.598898  0.280473  0.197781  1
