# generated using pymatgen
data_K9Fe2S7
_symmetry_space_group_name_H-M   'P 1'
_cell_length_a   12.76149577
_cell_length_b   12.76149577
_cell_length_c   12.76149577
_cell_angle_alpha   90.00000000
_cell_angle_beta   90.00000000
_cell_angle_gamma   90.00000000
_symmetry_Int_Tables_number   1
_chemical_formula_structural   K9Fe2S7
_chemical_formula_sum   'K36 Fe8 S28'
_cell_volume   2078.28327469
_cell_formula_units_Z   4
loop_
 _symmetry_equiv_pos_site_id
 _symmetry_equiv_pos_as_xyz
  1  'x, y, z'
loop_
 _atom_site_type_symbol
 _atom_site_label
 _atom_site_symmetry_multiplicity
 _atom_site_fract_x
 _atom_site_fract_y
 _atom_site_fract_z
 _atom_site_occupancy
  S  S1  1  0.206036  0.293964  0.706036  1
  S  S2  1  0.293964  0.706036  0.206036  1
  S  S3  1  0.706036  0.206036  0.293964  1
  S  S4  1  0.793964  0.793964  0.793964  1
  S  S5  1  0.423813  0.940981  0.811990  1
  S  S6  1  0.923813  0.559019  0.188010  1
  S  S7  1  0.576187  0.440981  0.688010  1
  S  S8  1  0.559019  0.188010  0.923813  1
  S  S9  1  0.688010  0.576187  0.440981  1
  S  S10  1  0.188010  0.923813  0.559019  1
  S  S11  1  0.940981  0.811990  0.423813  1
  S  S12  1  0.811990  0.423813  0.940981  1
  S  S13  1  0.440981  0.688010  0.576187  1
  S  S14  1  0.059019  0.311990  0.076187  1
  S  S15  1  0.311990  0.076187  0.059019  1
  S  S16  1  0.076187  0.059019  0.311990  1
  S  S17  1  0.588405  0.931084  0.335712  1
  S  S18  1  0.088405  0.568916  0.664288  1
  S  S19  1  0.411595  0.431084  0.164288  1
  S  S20  1  0.568916  0.664288  0.088405  1
  S  S21  1  0.164288  0.411595  0.431084  1
  S  S22  1  0.664288  0.088405  0.568916  1
  S  S23  1  0.931084  0.335712  0.588405  1
  S  S24  1  0.335712  0.588405  0.931084  1
  S  S25  1  0.431084  0.164288  0.411595  1
  S  S26  1  0.068916  0.835712  0.911595  1
  S  S27  1  0.835712  0.911595  0.068916  1
  S  S28  1  0.911595  0.068916  0.835712  1
  K  K29  1  0.708558  0.822295  0.542166  1
  K  K30  1  0.262361  0.762361  0.737639  1
  K  K31  1  0.737639  0.262361  0.762361  1
  K  K32  1  0.762361  0.737639  0.262361  1
  K  K33  1  0.058881  0.058881  0.058881  1
  K  K34  1  0.441119  0.941119  0.558881  1
  K  K35  1  0.558881  0.441119  0.941119  1
  K  K36  1  0.941119  0.558881  0.441119  1
  K  K37  1  0.833051  0.002035  0.299797  1
  K  K38  1  0.299797  0.833051  0.002035  1
  K  K39  1  0.002035  0.299797  0.833051  1
  K  K40  1  0.497965  0.700203  0.333051  1
  K  K41  1  0.799797  0.666949  0.997965  1
  K  K42  1  0.997965  0.799797  0.666949  1
  K  K43  1  0.200203  0.166949  0.502035  1
  K  K44  1  0.700203  0.333051  0.497965  1
  K  K45  1  0.587208  0.912792  0.087208  1
  K  K46  1  0.912792  0.087208  0.587208  1
  K  K47  1  0.087208  0.587208  0.912792  1
  K  K48  1  0.412792  0.412792  0.412792  1
  K  K49  1  0.322295  0.957834  0.291442  1
  K  K50  1  0.822295  0.542166  0.708558  1
  K  K51  1  0.502035  0.200203  0.166949  1
  K  K52  1  0.542166  0.708558  0.822295  1
  K  K53  1  0.208558  0.677705  0.457834  1
  K  K54  1  0.237639  0.237639  0.237639  1
  K  K55  1  0.957834  0.291442  0.322295  1
  K  K56  1  0.291442  0.322295  0.957834  1
  K  K57  1  0.457834  0.208558  0.677705  1
  K  K58  1  0.042166  0.791442  0.177705  1
  K  K59  1  0.791442  0.177705  0.042166  1
  K  K60  1  0.177705  0.042166  0.791442  1
  K  K61  1  0.666949  0.997965  0.799797  1
  K  K62  1  0.166949  0.502035  0.200203  1
  K  K63  1  0.333051  0.497965  0.700203  1
  K  K64  1  0.677705  0.457834  0.208558  1
  Fe  Fe65  1  0.099300  0.400700  0.599300  1
  Fe  Fe66  1  0.400700  0.599300  0.099300  1
  Fe  Fe67  1  0.599300  0.099300  0.400700  1
  Fe  Fe68  1  0.900700  0.900700  0.900700  1
  Fe  Fe69  1  0.429673  0.070327  0.929673  1
  Fe  Fe70  1  0.070327  0.929673  0.429673  1
  Fe  Fe71  1  0.929673  0.429673  0.070327  1
  Fe  Fe72  1  0.570327  0.570327  0.570327  1
