# generated using pymatgen
data_KCr5S8
_symmetry_space_group_name_H-M   'P 1'
_cell_length_a   3.50382637
_cell_length_b   8.71748247
_cell_length_c   9.19665910
_cell_angle_alpha   105.46881773
_cell_angle_beta   100.98164533
_cell_angle_gamma   89.99999999
_symmetry_Int_Tables_number   1
_chemical_formula_structural   KCr5S8
_chemical_formula_sum   'K1 Cr5 S8'
_cell_volume   265.39102851
_cell_formula_units_Z   1
loop_
 _symmetry_equiv_pos_site_id
 _symmetry_equiv_pos_as_xyz
  1  'x, y, z'
loop_
 _atom_site_type_symbol
 _atom_site_label
 _atom_site_symmetry_multiplicity
 _atom_site_fract_x
 _atom_site_fract_y
 _atom_site_fract_z
 _atom_site_occupancy
  S  S1  1  0.237817  0.155030  0.475635  1
  S  S2  1  0.762183  0.844970  0.524365  1
  S  S3  1  0.171655  0.485294  0.343310  1
  S  S4  1  0.828345  0.514706  0.656690  1
  S  S5  1  0.083797  0.825915  0.167594  1
  S  S6  1  0.916203  0.174085  0.832406  1
  S  S7  1  0.422595  0.853606  0.845190  1
  S  S8  1  0.577405  0.146394  0.154810  1
  K  K9  1  0.500000  0.500000  0.000000  1
  Cr  Cr10  1  0.704131  0.334018  0.408262  1
  Cr  Cr11  1  0.341972  0.028975  0.683944  1
  Cr  Cr12  1  0.658028  0.971025  0.316056  1
  Cr  Cr13  1  0.000000  0.000000  0.000000  1
  Cr  Cr14  1  0.295869  0.665982  0.591738  1
