# generated using pymatgen
data_La2CuS4
_symmetry_space_group_name_H-M   'P 1'
_cell_length_a   7.57246168
_cell_length_b   7.76117955
_cell_length_c   10.89723019
_cell_angle_alpha   104.51401550
_cell_angle_beta   90.00000000
_cell_angle_gamma   90.00000000
_symmetry_Int_Tables_number   1
_chemical_formula_structural   La2CuS4
_chemical_formula_sum   'La8 Cu4 S16'
_cell_volume   620.00478704
_cell_formula_units_Z   4
loop_
 _symmetry_equiv_pos_site_id
 _symmetry_equiv_pos_as_xyz
  1  'x, y, z'
loop_
 _atom_site_type_symbol
 _atom_site_label
 _atom_site_symmetry_multiplicity
 _atom_site_fract_x
 _atom_site_fract_y
 _atom_site_fract_z
 _atom_site_occupancy
  S  S1  1  0.945139  0.889508  0.026154  1
  S  S2  1  0.445139  0.110492  0.473846  1
  S  S3  1  0.054861  0.110492  0.973846  1
  S  S4  1  0.554861  0.889508  0.526154  1
  S  S5  1  0.070372  0.792631  0.374096  1
  S  S6  1  0.570372  0.207369  0.125904  1
  S  S7  1  0.929628  0.207369  0.625904  1
  S  S8  1  0.429628  0.792631  0.874096  1
  S  S9  1  0.604498  0.752596  0.208002  1
  S  S10  1  0.104498  0.247404  0.291998  1
  S  S11  1  0.395502  0.247404  0.791998  1
  S  S12  1  0.895502  0.752596  0.708002  1
  S  S13  1  0.788044  0.445175  0.912580  1
  S  S14  1  0.288044  0.554825  0.587420  1
  S  S15  1  0.211956  0.554825  0.087420  1
  S  S16  1  0.711956  0.445175  0.412580  1
  Cu  Cu17  1  0.614883  0.677919  0.994950  1
  Cu  Cu18  1  0.114883  0.322081  0.505050  1
  Cu  Cu19  1  0.385117  0.322081  0.005050  1
  Cu  Cu20  1  0.885117  0.677919  0.494950  1
  La  La21  1  0.297820  0.940422  0.138948  1
  La  La22  1  0.797820  0.059578  0.361052  1
  La  La23  1  0.702180  0.059578  0.861052  1
  La  La24  1  0.202180  0.940422  0.638948  1
  La  La25  1  0.626309  0.470997  0.674676  1
  La  La26  1  0.126309  0.529003  0.825324  1
  La  La27  1  0.373691  0.529003  0.325324  1
  La  La28  1  0.873691  0.470997  0.174676  1
