# generated using pymatgen
data_La2Fe2S5
_symmetry_space_group_name_H-M   'P 1'
_cell_length_a   3.96544020
_cell_length_b   8.51545409
_cell_length_c   11.30803240
_cell_angle_alpha   90.00000000
_cell_angle_beta   90.00000000
_cell_angle_gamma   103.46420616
_symmetry_Int_Tables_number   1
_chemical_formula_structural   La2Fe2S5
_chemical_formula_sum   'La4 Fe4 S10'
_cell_volume   371.349483052
_cell_formula_units_Z   2
loop_
 _symmetry_equiv_pos_site_id
 _symmetry_equiv_pos_as_xyz
  1  'x, y, z'
loop_
 _atom_site_type_symbol
 _atom_site_label
 _atom_site_symmetry_multiplicity
 _atom_site_fract_x
 _atom_site_fract_y
 _atom_site_fract_z
 _atom_site_occupancy
  S  S1  1  0.458282  0.916563  0.200861  1
  S  S2  1  0.541718  0.083437  0.700861  1
  S  S3  1  0.990325  0.980650  0.465910  1
  S  S4  1  0.009675  0.019350  0.965910  1
  S  S5  1  0.154579  0.309158  0.256998  1
  S  S6  1  0.845421  0.690842  0.756998  1
  S  S7  1  0.801074  0.602148  0.105145  1
  S  S8  1  0.198926  0.397852  0.605145  1
  S  S9  1  0.199776  0.399552  0.906096  1
  S  S10  1  0.800224  0.600448  0.406096  1
  Fe  Fe11  1  0.914562  0.829124  0.285907  1
  Fe  Fe12  1  0.085438  0.170876  0.785907  1
  Fe  Fe13  1  0.304454  0.608908  0.248276  1
  Fe  Fe14  1  0.695546  0.391092  0.748276  1
  La  La15  1  0.623142  0.246284  0.069607  1
  La  La16  1  0.376858  0.753716  0.569607  1
  La  La17  1  0.621134  0.242268  0.451200  1
  La  La18  1  0.378866  0.757732  0.951200  1
