# generated using pymatgen
data_Y2CrS4
_symmetry_space_group_name_H-M   'P 1'
_cell_length_a   7.52054483
_cell_length_b   12.58706025
_cell_length_c   12.58420571
_cell_angle_alpha   90.00000000
_cell_angle_beta   90.00000000
_cell_angle_gamma   90.00000000
_symmetry_Int_Tables_number   1
_chemical_formula_structural   Y2CrS4
_chemical_formula_sum   'Y16 Cr8 S32'
_cell_volume   1191.2404292
_cell_formula_units_Z   8
loop_
 _symmetry_equiv_pos_site_id
 _symmetry_equiv_pos_as_xyz
  1  'x, y, z'
loop_
 _atom_site_type_symbol
 _atom_site_label
 _atom_site_symmetry_multiplicity
 _atom_site_fract_x
 _atom_site_fract_y
 _atom_site_fract_z
 _atom_site_occupancy
  Y  Y1  1  0.631259  0.506654  0.365411  1
  Y  Y2  1  0.131491  0.507603  0.364942  1
  Y  Y3  1  0.631259  1.006654  0.134589  1
  Y  Y4  1  0.368741  1.006654  0.634589  1
  Y  Y5  1  0.868509  0.507603  0.864942  1
  Y  Y6  1  0.368741  0.506654  0.865411  1
  Y  Y7  1  0.614875  0.174326  0.873705  1
  Y  Y8  1  0.385125  0.674326  0.126295  1
  Y  Y9  1  0.886755  0.314092  0.108691  1
  Y  Y10  1  0.886755  0.814092  0.391309  1
  Y  Y11  1  0.113245  0.314092  0.608691  1
  Y  Y12  1  0.385125  0.174326  0.373705  1
  Y  Y13  1  0.614875  0.674326  0.626295  1
  Y  Y14  1  0.113245  0.814092  0.891309  1
  Y  Y15  1  0.868509  0.007603  0.635058  1
  Y  Y16  1  0.131491  0.007603  0.135058  1
  Cr  Cr17  1  0.880634  0.178132  0.373923  1
  Cr  Cr18  1  0.880634  0.678132  0.126077  1
  Cr  Cr19  1  0.615917  0.306197  0.612301  1
  Cr  Cr20  1  0.119366  0.178132  0.873923  1
  Cr  Cr21  1  0.384083  0.806197  0.387699  1
  Cr  Cr22  1  0.615917  0.806197  0.887699  1
  Cr  Cr23  1  0.384083  0.306197  0.112301  1
  Cr  Cr24  1  0.119366  0.678132  0.626077  1
  S  S25  1  0.859126  0.728998  0.769887  1
  S  S26  1  0.614049  0.369842  0.973567  1
  S  S27  1  0.382136  0.975886  0.290212  1
  S  S28  1  0.884971  0.121057  0.009158  1
  S  S29  1  0.884971  0.621057  0.490842  1
  S  S30  1  0.140874  0.728998  0.269887  1
  S  S31  1  0.626023  0.133396  0.527281  1
  S  S32  1  0.382136  0.475886  0.209788  1
  S  S33  1  0.882085  0.504100  0.208119  1
  S  S34  1  0.385951  0.869842  0.026433  1
  S  S35  1  0.626023  0.633396  0.972719  1
  S  S36  1  0.875987  0.859213  0.049443  1
  S  S37  1  0.614049  0.869842  0.526433  1
  S  S38  1  0.617864  0.975886  0.790212  1
  S  S39  1  0.115029  0.121057  0.509158  1
  S  S40  1  0.117915  0.504100  0.708119  1
  S  S41  1  0.356425  0.223503  0.737561  1
  S  S42  1  0.115029  0.621057  0.990842  1
  S  S43  1  0.124013  0.359213  0.950557  1
  S  S44  1  0.140874  0.228998  0.230113  1
  S  S45  1  0.882085  0.004100  0.291881  1
  S  S46  1  0.617864  0.475886  0.709788  1
  S  S47  1  0.117915  0.004100  0.791881  1
  S  S48  1  0.385951  0.369842  0.473567  1
  S  S49  1  0.859126  0.228998  0.730113  1
  S  S50  1  0.124013  0.859213  0.549443  1
  S  S51  1  0.643575  0.223503  0.237561  1
  S  S52  1  0.643575  0.723503  0.262439  1
  S  S53  1  0.356425  0.723503  0.762439  1
  S  S54  1  0.373977  0.633396  0.472719  1
  S  S55  1  0.373977  0.133396  0.027281  1
  S  S56  1  0.875987  0.359213  0.450557  1
